data_MOF-801_SI

_audit_creation_method RASPA-1.0
_audit_creation_date 2017-4-24
_audit_author_name 'jag227'

_cell_length_a    17.8348
_cell_length_b    17.8348
_cell_length_c    17.8348
_cell_angle_alpha 90
_cell_angle_beta  90
_cell_angle_gamma 90
_cell_volume      5672.89

_symmetry_cell_setting          cubic
_symmetry_space_group_name_Hall 'P 1'
_symmetry_space_group_name_H-M  'P 1'
_symmetry_Int_Tables_number     1

_symmetry_equiv_pos_as_xyz 'x,y,z'

loop_
_atom_site_label
_atom_site_type_symbol
_atom_site_fract_x
_atom_site_fract_y
_atom_site_fract_z
_atom_site_charge
Zr1      Zr     0.137850158000     0.511129926000     0.011880144000     0          
Zr2      Zr     0.862149842000     0.488870074000     0.011880144000     0          
Zr3      Zr     0.862149842000     0.511129926000     0.988119856000     0          
Zr4      Zr     0.137850158000     0.488870074000     0.988119856000     0          
Zr5      Zr     0.011880144000     0.137850158000     0.511129926000     0          
Zr6      Zr     0.011880144000     0.862149842000     0.488870074000     0          
Zr7      Zr     0.988119856000     0.862149842000     0.511129926000     0          
Zr8      Zr     0.988119856000     0.137850158000     0.488870074000     0          
Zr9      Zr     0.511129926000     0.011880144000     0.137850158000     0          
Zr10     Zr     0.488870074000     0.011880144000     0.862149842000     0          
Zr11     Zr     0.511129926000     0.988119856000     0.862149842000     0          
Zr12     Zr     0.488870074000     0.988119856000     0.137850158000     0          
Zr13     Zr     0.362149842000     0.988870074000     0.488119856000     0          
Zr14     Zr     0.637850158000     0.011129926000     0.488119856000     0          
Zr15     Zr     0.637850158000     0.988870074000     0.511880144000     0          
Zr16     Zr     0.362149842000     0.011129926000     0.511880144000     0          
Zr17     Zr     0.488119856000     0.362149842000     0.988870074000     0          
Zr18     Zr     0.488119856000     0.637850158000     0.011129926000     0          
Zr19     Zr     0.511880144000     0.637850158000     0.988870074000     0          
Zr20     Zr     0.511880144000     0.362149842000     0.011129926000     0          
Zr21     Zr     0.988870074000     0.488119856000     0.362149842000     0          
Zr22     Zr     0.011129926000     0.488119856000     0.637850158000     0          
Zr23     Zr     0.988870074000     0.511880144000     0.637850158000     0          
Zr24     Zr     0.011129926000     0.511880144000     0.362149842000     0          
O25      O      0.208999821000     0.408500235000     0.008000090000     0          
O26      O      0.791000179000     0.591499765000     0.008000090000     0          
O27      O      0.791000179000     0.408500235000     0.991999910000     0          
O28      O      0.208999821000     0.591499765000     0.991999910000     0          
O29      O      0.008000090000     0.208999821000     0.408500235000     0          
O30      O      0.008000090000     0.791000179000     0.591499765000     0          
O31      O      0.991999910000     0.791000179000     0.408500235000     0          
O32      O      0.991999910000     0.208999821000     0.591499765000     0          
O33      O      0.408500235000     0.008000090000     0.208999821000     0          
O34      O      0.591499765000     0.008000090000     0.791000179000     0          
O35      O      0.408499675000     0.991999910000     0.791000179000     0          
O36      O      0.591499765000     0.991999910000     0.208999821000     0          
O37      O      0.291000179000     0.091499765000     0.491999910000     0          
O38      O      0.708999821000     0.908500235000     0.491999910000     0          
O39      O      0.708999821000     0.091499765000     0.508000090000     0          
O40      O      0.291000179000     0.908500235000     0.508000090000     0          
O41      O      0.491999910000     0.291000179000     0.091499765000     0          
O42      O      0.491999910000     0.708999821000     0.908500235000     0          
O43      O      0.508000090000     0.708999821000     0.091499765000     0          
O44      O      0.508000090000     0.291000179000     0.908500235000     0          
O45      O      0.091499765000     0.491999910000     0.291000179000     0          
O46      O      0.908500235000     0.491999910000     0.708999821000     0          
O47      O      0.091499765000     0.508000090000     0.708999821000     0          
O48      O      0.908500235000     0.508000090000     0.291000179000     0          
O49      O      0.190400229000     0.624600220000     0.024600220000     0          
O50      O      0.809599771000     0.375399780000     0.024600220000     0          
O51      O      0.809599771000     0.624600220000     0.975399780000     0          
O52      O      0.190400229000     0.375399780000     0.975399780000     0          
O53      O      0.024600220000     0.190400229000     0.624600220000     0          
O54      O      0.024600220000     0.809599771000     0.375399780000     0          
O55      O      0.975399780000     0.809599771000     0.624600220000     0          
O56      O      0.975399780000     0.190400229000     0.375399780000     0          
O57      O      0.624600220000     0.024600220000     0.190400229000     0          
O58      O      0.375399780000     0.024600220000     0.809599771000     0          
O59      O      0.624600220000     0.975399780000     0.809599771000     0          
O60      O      0.375399780000     0.975399780000     0.190400229000     0          
O61      O      0.309599771000     0.875399780000     0.475399780000     0          
O62      O      0.690400229000     0.124600220000     0.475399780000     0          
O63      O      0.690400229000     0.875399780000     0.524600220000     0          
O64      O      0.309599771000     0.124600220000     0.524600220000     0          
O65      O      0.475399780000     0.309599771000     0.875399780000     0          
O66      O      0.475399780000     0.690400229000     0.124600220000     0          
O67      O      0.524600220000     0.690400229000     0.875399780000     0          
O68      O      0.524600220000     0.309599771000     0.124600220000     0          
O69      O      0.875399780000     0.475399780000     0.309599771000     0          
O70      O      0.124600220000     0.475399780000     0.690400229000     0          
O71      O      0.875399780000     0.524600220000     0.690400229000     0          
O72      O      0.124600220000     0.524600220000     0.309599771000     0          
O73      O      0.189600108000     0.507299773000     0.126300267000     0          
O74      O      0.810399892000     0.492700227000     0.126300267000     0          
O75      O      0.810399892000     0.507299773000     0.873700294000     0          
O76      O      0.189600108000     0.492700227000     0.873700294000     0          
O77      O      0.126299706000     0.189600108000     0.507299773000     0          
O78      O      0.126299706000     0.810399892000     0.492700227000     0          
O79      O      0.873699733000     0.810399892000     0.507299773000     0          
O80      O      0.873699733000     0.189600108000     0.492700227000     0          
O81      O      0.507299773000     0.126300267000     0.189600108000     0          
O82      O      0.492700227000     0.126299706000     0.810399892000     0          
O83      O      0.507299773000     0.873699733000     0.810399892000     0          
O84      O      0.492700227000     0.873700294000     0.189600108000     0          
O85      O      0.310399892000     0.992700227000     0.373700294000     0          
O86      O      0.689600108000     0.007299773000     0.373700294000     0          
O87      O      0.689600108000     0.992700227000     0.626300267000     0          
O88      O      0.310399892000     0.007299773000     0.626300267000     0          
O89      O      0.373699733000     0.310399892000     0.992700227000     0          
O90      O      0.373699733000     0.689600108000     0.007299773000     0          
O91      O      0.626299706000     0.689600108000     0.992700227000     0          
O92      O      0.626300267000     0.310399892000     0.007299773000     0          
O93      O      0.992700227000     0.373699733000     0.310399892000     0          
O94      O      0.007299773000     0.373699733000     0.689600108000     0          
O95      O      0.992700227000     0.626300267000     0.689600108000     0          
O96      O      0.007299773000     0.626300267000     0.310399892000     0          
O97      O      0.208800211000     0.523899904000     0.909400161000     0          
O98      O      0.791199789000     0.476100096000     0.909400161000     0          
O99      O      0.791199789000     0.523899904000     0.090599839000     0          
O100     O      0.208800211000     0.476100096000     0.090599839000     0          
O101     O      0.909400161000     0.208800211000     0.523899904000     0          
O102     O      0.909400161000     0.791199789000     0.476100096000     0          
O103     O      0.090599839000     0.791199789000     0.523899904000     0          
O104     O      0.090599839000     0.208800211000     0.476100096000     0          
O105     O      0.523899904000     0.909400161000     0.208800211000     0          
O106     O      0.476100096000     0.909400161000     0.791199789000     0          
O107     O      0.523899904000     0.090599839000     0.791199789000     0          
O108     O      0.476100096000     0.090599839000     0.208800211000     0          
O109     O      0.291199789000     0.976100096000     0.590599839000     0          
O110     O      0.708800211000     0.023899904000     0.590599839000     0          
O111     O      0.708800211000     0.976100096000     0.409400161000     0          
O112     O      0.291199789000     0.023899904000     0.409400161000     0          
O113     O      0.590599839000     0.291199789000     0.976100096000     0          
O114     O      0.590599839000     0.708800211000     0.023899904000     0          
O115     O      0.409400161000     0.708800211000     0.976100096000     0          
O116     O      0.409400161000     0.291199789000     0.023899904000     0          
O117     O      0.976100096000     0.590599839000     0.291199789000     0          
O118     O      0.023899904000     0.590599839000     0.708800211000     0          
O119     O      0.976100096000     0.409400161000     0.708800211000     0          
O120     O      0.023899904000     0.409400161000     0.291199789000     0          
C121     C      0.160399892000     0.689099962000     0.024000269000     0          
C122     C      0.839600108000     0.310900038000     0.024000269000     0          
C123     C      0.839600108000     0.689099962000     0.976000292000     0          
C124     C      0.160399892000     0.310900038000     0.976000292000     0          
C125     C      0.023999708000     0.160399892000     0.689099962000     0          
C126     C      0.023999708000     0.839600108000     0.310900038000     0          
C127     C      0.975999731000     0.839600108000     0.689099962000     0          
C128     C      0.976000292000     0.160399892000     0.310900038000     0          
C129     C      0.689099962000     0.024000269000     0.160399892000     0          
C130     C      0.310900038000     0.023999708000     0.839600108000     0          
C131     C      0.689099962000     0.975999731000     0.839600108000     0          
C132     C      0.310900038000     0.976000292000     0.160399892000     0          
C133     C      0.339600108000     0.810900038000     0.476000292000     0          
C134     C      0.660399892000     0.189099962000     0.476000292000     0          
C135     C      0.660399892000     0.810900038000     0.524000269000     0          
C136     C      0.339600108000     0.189099962000     0.524000269000     0          
C137     C      0.475999731000     0.339600108000     0.810900038000     0          
C138     C      0.475999731000     0.660399892000     0.189099962000     0          
C139     C      0.523999708000     0.660399892000     0.810900038000     0          
C140     C      0.524000269000     0.339600108000     0.189099962000     0          
C141     C      0.810900038000     0.475999731000     0.339600108000     0          
C142     C      0.189099962000     0.475999731000     0.660399892000     0          
C143     C      0.810900038000     0.524000269000     0.660399892000     0          
C144     C      0.189099962000     0.524000269000     0.339600108000     0          
C145     C      0.214199767000     0.755499922000     0.024300244000     0          
C146     C      0.785800233000     0.244500078000     0.024300244000     0          
C147     C      0.785800233000     0.755499922000     0.975700316000     0          
C148     C      0.214199767000     0.244500078000     0.975700316000     0          
C149     C      0.024299684000     0.214199767000     0.755499922000     0          
C150     C      0.024299684000     0.785800233000     0.244500078000     0          
C151     C      0.975699756000     0.785800233000     0.755499922000     0          
C152     C      0.975699756000     0.214199767000     0.244500078000     0          
C153     C      0.755499922000     0.024300244000     0.214199767000     0          
C154     C      0.244500078000     0.024300244000     0.785800233000     0          
C155     C      0.755499922000     0.975699756000     0.785800233000     0          
C156     C      0.244500078000     0.975699756000     0.214199767000     0          
C157     C      0.285800233000     0.744500078000     0.475699756000     0          
C158     C      0.714199767000     0.255499922000     0.475699756000     0          
C159     C      0.714199767000     0.744500078000     0.524300244000     0          
C160     C      0.285800233000     0.255499922000     0.524300244000     0          
C161     C      0.475699756000     0.285800233000     0.744500078000     0          
C162     C      0.475699756000     0.714199767000     0.255499922000     0          
C163     C      0.524299684000     0.714199767000     0.744500078000     0          
C164     C      0.524300244000     0.285800233000     0.255499922000     0          
C165     C      0.744500078000     0.475699756000     0.285800233000     0          
C166     C      0.255499922000     0.475699756000     0.714199767000     0          
C167     C      0.744500078000     0.524300244000     0.714199767000     0          
C168     C      0.255499922000     0.524300244000     0.285800233000     0          
H169     H      0.195499809000     0.804200215000     0.024400049000     0          
H170     H      0.804500191000     0.195799785000     0.024400049000     0          
H171     H      0.804500191000     0.804200215000     0.975599951000     0          
H172     H      0.195499809000     0.195799785000     0.975599951000     0          
H173     H      0.024400049000     0.195499809000     0.804200215000     0          
H174     H      0.024400049000     0.804500191000     0.195799785000     0          
H175     H      0.975599951000     0.804500191000     0.804200215000     0          
H176     H      0.975599951000     0.195499809000     0.195799785000     0          
H177     H      0.804200215000     0.024400049000     0.195499809000     0          
H178     H      0.195799785000     0.024400049000     0.804500191000     0          
H179     H      0.804200215000     0.975599951000     0.804500191000     0          
H180     H      0.195799785000     0.975599951000     0.195499809000     0          
H181     H      0.304500191000     0.695799785000     0.475599951000     0          
H182     H      0.695499809000     0.304200215000     0.475599951000     0          
H183     H      0.695499809000     0.695799785000     0.524400049000     0          
H184     H      0.304500191000     0.304200215000     0.524400049000     0          
H185     H      0.475599951000     0.304500191000     0.695799785000     0          
H186     H      0.475599951000     0.695499809000     0.304200215000     0          
H187     H      0.524400049000     0.695499809000     0.695799785000     0          
H188     H      0.524400049000     0.304500191000     0.304200215000     0          
H189     H      0.695799785000     0.475599951000     0.304500191000     0          
H190     H      0.304200215000     0.475599951000     0.695499809000     0          
H191     H      0.695799785000     0.524400049000     0.695499809000     0          
H192     H      0.304200215000     0.524400049000     0.304500191000     0          
C193     C      0.190599839000     0.339800278000     0.000000000000     0          
C194     C      0.809400161000     0.660200283000     0.000000000000     0          
C195     C      0.809400161000     0.339800278000     0.000000000000     0          
C196     C      0.190599839000     0.660200283000     0.000000000000     0          
C197     C      0.000000000000     0.190599839000     0.339800278000     0          
C198     C      0.000000000000     0.809400161000     0.660200283000     0          
C199     C      0.000000000000     0.809400161000     0.339800278000     0          
C200     C      0.000000000000     0.190599839000     0.660200283000     0          
C201     C      0.339800278000     0.000000000000     0.190599839000     0          
C202     C      0.660199722000     0.000000000000     0.809400161000     0          
C203     C      0.339799717000     0.000000000000     0.809400161000     0          
C204     C      0.660200283000     0.000000000000     0.190599839000     0          
C205     C      0.309400161000     0.160199722000     0.500000000000     0          
C206     C      0.690599839000     0.839800278000     0.500000000000     0          
C207     C      0.690599839000     0.160199722000     0.500000000000     0          
C208     C      0.309400161000     0.839800278000     0.500000000000     0          
C209     C      0.500000000000     0.309400161000     0.160200283000     0          
C210     C      0.500000000000     0.690599839000     0.839800278000     0          
C211     C      0.500000000000     0.690599839000     0.160200283000     0          
C212     C      0.500000000000     0.309400161000     0.839800278000     0          
C213     C      0.160199722000     0.500000000000     0.309400161000     0          
C214     C      0.839799717000     0.500000000000     0.690599839000     0          
C215     C      0.160199722000     0.500000000000     0.690599839000     0          
C216     C      0.839800278000     0.500000000000     0.309400161000     0          
C217     C      0.256699823000     0.286499989000     0.000099804900     0          
C218     C      0.743300177000     0.713500011000     0.000099804900     0          
C219     C      0.743300177000     0.286499989000     0.999900195000     0          
C220     C      0.256699823000     0.713500011000     0.999900195000     0          
C221     C      0.000099804900     0.256699823000     0.286499989000     0          
C222     C      0.000099804900     0.743300177000     0.713500011000     0          
C223     C      0.999900195000     0.743300177000     0.286499989000     0          
C224     C      0.999900195000     0.256699823000     0.713500011000     0          
C225     C      0.286499989000     0.000099804900     0.256699823000     0          
C226     C      0.713500011000     0.000099804900     0.743300177000     0          
C227     C      0.286499989000     0.999900195000     0.743300177000     0          
C228     C      0.713500011000     0.999900195000     0.256699823000     0          
C229     C      0.243300177000     0.213500011000     0.499900195000     0          
C230     C      0.756699823000     0.786499989000     0.499900195000     0          
C231     C      0.756699823000     0.213500011000     0.500099805000     0          
C232     C      0.243300177000     0.786499989000     0.500099805000     0          
C233     C      0.499900195000     0.243300177000     0.213500011000     0          
C234     C      0.499900195000     0.756699823000     0.786499989000     0          
C235     C      0.500099805000     0.756699823000     0.213500011000     0          
C236     C      0.500099805000     0.243300177000     0.786499989000     0          
C237     C      0.213500011000     0.499900195000     0.243300177000     0          
C238     C      0.786499989000     0.499900195000     0.756699823000     0          
C239     C      0.213500011000     0.500099805000     0.756699823000     0          
C240     C      0.786499989000     0.500099805000     0.243300177000     0          
H241     H      0.305599726000     0.304599996000     0.000099804900     0          
H242     H      0.694400274000     0.695400004000     0.000099804900     0          
H243     H      0.694399713000     0.304599996000     0.999900195000     0          
H244     H      0.305599726000     0.695400004000     0.999900195000     0          
H245     H      0.000099804900     0.305599726000     0.304599996000     0          
H246     H      0.000099804900     0.694400274000     0.695400004000     0          
H247     H      0.999900195000     0.694400274000     0.304599996000     0          
H248     H      0.999900195000     0.305599726000     0.695400004000     0          
H249     H      0.304599996000     0.000099804900     0.305600287000     0          
H250     H      0.695400004000     0.000099804900     0.694400274000     0          
H251     H      0.304599996000     0.999900195000     0.694400274000     0          
H252     H      0.695400004000     0.999900195000     0.305600287000     0          
H253     H      0.194399713000     0.195400004000     0.499900195000     0          
H254     H      0.805599726000     0.804599996000     0.499900195000     0          
H255     H      0.805599726000     0.195400004000     0.500099805000     0          
H256     H      0.194399713000     0.804599996000     0.500099805000     0          
H257     H      0.499900195000     0.194400274000     0.195400004000     0          
H258     H      0.499900195000     0.805599726000     0.804599996000     0          
H259     H      0.500099805000     0.805600287000     0.195400004000     0          
H260     H      0.500099805000     0.194399713000     0.804599996000     0          
H261     H      0.195400004000     0.499900195000     0.194400274000     0          
H262     H      0.804599996000     0.499900195000     0.805600287000     0          
H263     H      0.195400004000     0.500099805000     0.805600287000     0          
H264     H      0.804599996000     0.500099805000     0.194400274000     0          
O265     O      0.076499877000     0.591699935000     0.935300087000     0          
O266     O      0.923500123000     0.408300065000     0.935300087000     0          
O267     O      0.923500123000     0.591699935000     0.064699913000     0          
O268     O      0.076499877000     0.408300065000     0.064699913000     0          
O269     O      0.935300087000     0.076499877000     0.591699935000     0          
O270     O      0.935300087000     0.923500123000     0.408300065000     0          
O271     O      0.064699913000     0.923500123000     0.591699935000     0          
O272     O      0.064699913000     0.076499877000     0.408300065000     0          
O273     O      0.591699935000     0.935300087000     0.076499877000     0          
O274     O      0.408300065000     0.935300087000     0.923500123000     0          
O275     O      0.591699935000     0.064699913000     0.923500123000     0          
O276     O      0.408300065000     0.064699913000     0.076499877000     0          
O277     O      0.423500123000     0.908300065000     0.564699913000     0          
O278     O      0.576499877000     0.091699935000     0.564699913000     0          
O279     O      0.576499877000     0.908300065000     0.435300087000     0          
O280     O      0.423500123000     0.091699935000     0.435300087000     0          
O281     O      0.564699913000     0.423500123000     0.908300065000     0          
O282     O      0.564699913000     0.576499877000     0.091699935000     0          
O283     O      0.435300087000     0.576499877000     0.908300065000     0          
O284     O      0.435300087000     0.423500123000     0.091699935000     0          
O285     O      0.908300065000     0.564699913000     0.423500123000     0          
O286     O      0.091699935000     0.564699913000     0.576499877000     0          
O287     O      0.908300065000     0.435300087000     0.576499877000     0          
O288     O      0.091699935000     0.435300087000     0.423500123000     0          
O289     O      0.059599771000     0.440400229000     0.059599771000     0          
O290     O      0.940400229000     0.559599771000     0.059599771000     0          
O291     O      0.940400229000     0.440400229000     0.940400229000     0          
O292     O      0.059599771000     0.559599771000     0.940400229000     0          
O293     O      0.059599771000     0.059599771000     0.440400229000     0          
O294     O      0.059599771000     0.940400229000     0.559599771000     0          
O295     O      0.940400229000     0.940400229000     0.440400229000     0          
O296     O      0.940400229000     0.059599771000     0.559599771000     0          
O297     O      0.440400229000     0.059599771000     0.059599771000     0          
O298     O      0.559599771000     0.059599771000     0.940400229000     0          
O299     O      0.440399668000     0.940400229000     0.940400229000     0          
O300     O      0.559599771000     0.940400229000     0.059599771000     0          
O301     O      0.440400229000     0.059599771000     0.440400229000     0          
O302     O      0.559599771000     0.940400229000     0.440400229000     0          
O303     O      0.559599771000     0.059599771000     0.559599771000     0          
O304     O      0.440400229000     0.940400229000     0.559599771000     0          
O305     O      0.440400229000     0.440400229000     0.059599771000     0          
O306     O      0.440400229000     0.559599771000     0.940400229000     0          
O307     O      0.559599771000     0.559599771000     0.059599771000     0          
O308     O      0.559599771000     0.440400229000     0.940400229000     0          
O309     O      0.059599771000     0.440400229000     0.440400229000     0          
O310     O      0.940400229000     0.440400229000     0.559599771000     0          
O311     O      0.059599771000     0.559599771000     0.559599771000     0          
O312     O      0.940400229000     0.559599771000     0.440400229000     0          
O313     O      0.059599771000     0.568600153000     0.950399780000     0          
O314     O      0.940400229000     0.431399847000     0.950399780000     0          
O315     O      0.940400229000     0.568600153000     0.049600220000     0          
O316     O      0.059599771000     0.431399847000     0.049600220000     0          
O317     O      0.950399780000     0.059599771000     0.568600153000     0          
O318     O      0.950399780000     0.940400229000     0.431399847000     0          
O319     O      0.049599659000     0.940400229000     0.568600153000     0          
O320     O      0.049600220000     0.059599771000     0.431399847000     0          
O321     O      0.568600153000     0.950399780000     0.059599771000     0          
O322     O      0.431399847000     0.950399780000     0.940400229000     0          
O323     O      0.568600153000     0.049600220000     0.940400229000     0          
O324     O      0.431399847000     0.049600220000     0.059599771000     0          
O325     O      0.440400229000     0.931399847000     0.549600220000     0          
O326     O      0.559599771000     0.068600153000     0.549600220000     0          
O327     O      0.559599771000     0.931399847000     0.450399780000     0          
O328     O      0.440400229000     0.068600153000     0.450399780000     0          
O329     O      0.549600220000     0.440400229000     0.931399847000     0          
O330     O      0.549600220000     0.559599771000     0.068600153000     0          
O331     O      0.450399780000     0.559599771000     0.931399847000     0          
O332     O      0.450399780000     0.440400229000     0.068600153000     0          
O333     O      0.931399847000     0.549600220000     0.440400229000     0          
O334     O      0.068600153000     0.549600220000     0.559599771000     0          
O335     O      0.931399847000     0.450399780000     0.559599771000     0          
O336     O      0.068600153000     0.450399780000     0.440400229000     0          
O337     O      0.078499899000     0.421500101000     0.078499899000     0          
O338     O      0.921500101000     0.578499899000     0.078499899000     0          
O339     O      0.921500101000     0.421500101000     0.921500101000     0          
O340     O      0.078499899000     0.578499899000     0.921500101000     0          
O341     O      0.078499899000     0.078499899000     0.421500101000     0          
O342     O      0.078499899000     0.921500101000     0.578499899000     0          
O343     O      0.921500101000     0.921500101000     0.421500101000     0          
O344     O      0.921500101000     0.078499899000     0.578499899000     0          
O345     O      0.421500101000     0.078499899000     0.078499899000     0          
O346     O      0.578499899000     0.078499899000     0.921500101000     0          
O347     O      0.421500101000     0.921500101000     0.921500101000     0          
O348     O      0.578499899000     0.921500101000     0.078499899000     0          
O349     O      0.421500101000     0.078499899000     0.421500101000     0          
O350     O      0.578499899000     0.921500101000     0.421500101000     0          
O351     O      0.578499899000     0.078499899000     0.578499899000     0          
O352     O      0.421500101000     0.921500101000     0.578499899000     0          
O353     O      0.421500101000     0.421500101000     0.078499899000     0          
O354     O      0.421500101000     0.578499899000     0.921500101000     0          
O355     O      0.578499899000     0.578499899000     0.078499899000     0          
O356     O      0.578499899000     0.421500101000     0.921500101000     0          
O357     O      0.078499899000     0.421500101000     0.421500101000     0          
O358     O      0.921500101000     0.421500101000     0.578499899000     0          
O359     O      0.078499899000     0.578499899000     0.578499899000     0          
O360     O      0.921500101000     0.578499899000     0.421500101000     0          


